 xtb: 6.7.1 (edcfbbe)
          12052416173D

 78 97  0     0  0            999 V2000
    1.2211    0.7254   10.0000 c   0  0  0  0  0  0  0  0  0  0  0  0
    0.0146    2.8683   10.0000 c   0  0  0  0  0  0  0  0  0  0  0  0
   -1.1925    5.0055   10.0000 c   0  0  0  0  0  0  0  0  0  0  0  0
   -2.3967    7.1432   10.0000 c   0  0  0  0  0  0  0  0  0  0  0  0
   -3.6009    9.2874   10.0000 c   0  0  0  0  0  0  0  0  0  0  0  0
    2.3834    0.0430   10.0000 c   0  0  0  0  0  0  0  0  0  0  0  0
    3.6500    0.7157   10.0000 c   0  0  0  0  0  0  0  0  0  0  0  0
    1.1915    2.1591   10.0000 c   0  0  0  0  0  0  0  0  0  0  0  0
    2.4437    2.8556   10.0000 c   0  0  0  0  0  0  0  0  0  0  0  0
   -0.0083    4.2851   10.0000 c   0  0  0  0  0  0  0  0  0  0  0  0
    1.2393    4.9866   10.0000 c   0  0  0  0  0  0  0  0  0  0  0  0
   -1.2088    6.4142   10.0000 c   0  0  0  0  0  0  0  0  0  0  0  0
    0.0367    7.1169   10.0000 c   0  0  0  0  0  0  0  0  0  0  0  0
   -2.4046    8.5454   10.0000 c   0  0  0  0  0  0  0  0  0  0  0  0
   -1.1660    9.2475   10.0000 c   0  0  0  0  0  0  0  0  0  0  0  0
   -3.5771   10.6676   10.0000 c   0  0  0  0  0  0  0  0  0  0  0  0
   -2.3783   11.3572   10.0000 c   0  0  0  0  0  0  0  0  0  0  0  0
    4.8428    0.0333   10.0000 c   0  0  0  0  0  0  0  0  0  0  0  0
    6.0911    0.7040   10.0000 c   0  0  0  0  0  0  0  0  0  0  0  0
    3.6489    2.1478   10.0000 c   0  0  0  0  0  0  0  0  0  0  0  0
    4.8870    2.8432   10.0000 c   0  0  0  0  0  0  0  0  0  0  0  0
    2.4484    4.2743   10.0000 c   0  0  0  0  0  0  0  0  0  0  0  0
    3.6851    4.9731   10.0000 c   0  0  0  0  0  0  0  0  0  0  0  0
    1.2470    6.4021   10.0000 c   0  0  0  0  0  0  0  0  0  0  0  0
    2.4831    7.1013   10.0000 c   0  0  0  0  0  0  0  0  0  0  0  0
    0.0477    8.5322   10.0000 c   0  0  0  0  0  0  0  0  0  0  0  0
    1.2817    9.2294   10.0000 c   0  0  0  0  0  0  0  0  0  0  0  0
   -1.1531   10.6696   10.0000 c   0  0  0  0  0  0  0  0  0  0  0  0
    0.0818   11.3428   10.0000 c   0  0  0  0  0  0  0  0  0  0  0  0
    7.2982    0.0194   10.0000 c   0  0  0  0  0  0  0  0  0  0  0  0
    8.5331    0.6927   10.0000 c   0  0  0  0  0  0  0  0  0  0  0  0
    6.0983    2.1329   10.0000 c   0  0  0  0  0  0  0  0  0  0  0  0
    7.3323    2.8300   10.0000 c   0  0  0  0  0  0  0  0  0  0  0  0
    4.8969    4.2609   10.0000 c   0  0  0  0  0  0  0  0  0  0  0  0
    6.1330    4.9601   10.0000 c   0  0  0  0  0  0  0  0  0  0  0  0
    3.6949    6.3891   10.0000 c   0  0  0  0  0  0  0  0  0  0  0  0
    4.9316    7.0879   10.0000 c   0  0  0  0  0  0  0  0  0  0  0  0
    2.4930    8.5190   10.0000 c   0  0  0  0  0  0  0  0  0  0  0  0
    3.7311    9.2144   10.0000 c   0  0  0  0  0  0  0  0  0  0  0  0
    1.2889   10.6583   10.0000 c   0  0  0  0  0  0  0  0  0  0  0  0
    2.5372   11.3289   10.0000 c   0  0  0  0  0  0  0  0  0  0  0  0
    9.7583    0.0051   10.0000 c   0  0  0  0  0  0  0  0  0  0  0  0
   10.9571    0.6947   10.0000 c   0  0  0  0  0  0  0  0  0  0  0  0
    8.5460    2.1148   10.0000 c   0  0  0  0  0  0  0  0  0  0  0  0
    9.7846    2.8168   10.0000 c   0  0  0  0  0  0  0  0  0  0  0  0
    7.3433    4.2454   10.0000 c   0  0  0  0  0  0  0  0  0  0  0  0
    8.5888    4.9480   10.0000 c   0  0  0  0  0  0  0  0  0  0  0  0
    6.1407    6.3757   10.0000 c   0  0  0  0  0  0  0  0  0  0  0  0
    7.3883    7.0771   10.0000 c   0  0  0  0  0  0  0  0  0  0  0  0
    4.9363    8.5066   10.0000 c   0  0  0  0  0  0  0  0  0  0  0  0
    6.1885    9.2031   10.0000 c   0  0  0  0  0  0  0  0  0  0  0  0
    3.7300   10.6465   10.0000 c   0  0  0  0  0  0  0  0  0  0  0  0
    4.9966   11.3193   10.0000 c   0  0  0  0  0  0  0  0  0  0  0  0
   10.9809    2.0749   10.0000 c   0  0  0  0  0  0  0  0  0  0  0  0
    9.7767    4.2190   10.0000 c   0  0  0  0  0  0  0  0  0  0  0  0
    8.5725    6.3568   10.0000 c   0  0  0  0  0  0  0  0  0  0  0  0
    7.3654    8.4940   10.0000 c   0  0  0  0  0  0  0  0  0  0  0  0
    6.1589   10.6368   10.0000 c   0  0  0  0  0  0  0  0  0  0  0  0
   -2.3718   12.4374   10.0000 h   0  0  0  0  0  0  0  0  0  0  0  0
    0.0851   12.4240   10.0000 h   0  0  0  0  0  0  0  0  0  0  0  0
    2.5388   12.4103   10.0000 h   0  0  0  0  0  0  0  0  0  0  0  0
    4.9901   12.4003   10.0000 h   0  0  0  0  0  0  0  0  0  0  0  0
    2.3899   -1.0380   10.0000 h   0  0  0  0  0  0  0  0  0  0  0  0
    4.8412   -1.0481   10.0000 h   0  0  0  0  0  0  0  0  0  0  0  0
    7.2949   -1.0618   10.0000 h   0  0  0  0  0  0  0  0  0  0  0  0
    9.7518   -1.0752   10.0000 h   0  0  0  0  0  0  0  0  0  0  0  0
    0.2740    0.2043   10.0000 h   0  0  0  0  0  0  0  0  0  0  0  0
   -0.9290    2.3401   10.0000 h   0  0  0  0  0  0  0  0  0  0  0  0
   -2.1354    4.4765   10.0000 h   0  0  0  0  0  0  0  0  0  0  0  0
   -3.3400    6.6151   10.0000 h   0  0  0  0  0  0  0  0  0  0  0  0
   -4.5428    8.7583   10.0000 h   0  0  0  0  0  0  0  0  0  0  0  0
   11.9228    2.6039   10.0000 h   0  0  0  0  0  0  0  0  0  0  0  0
   10.7200    4.7472   10.0000 h   0  0  0  0  0  0  0  0  0  0  0  0
    9.5154    6.8857   10.0000 h   0  0  0  0  0  0  0  0  0  0  0  0
    8.3090    9.0222   10.0000 h   0  0  0  0  0  0  0  0  0  0  0  0
    7.1060   11.1580   10.0000 h   0  0  0  0  0  0  0  0  0  0  0  0
   -4.5077   11.2172   10.0000 h   0  0  0  0  0  0  0  0  0  0  0  0
   11.8877    0.1451   10.0000 h   0  0  0  0  0  0  0  0  0  0  0  0
  1  6  2  0  0  0  0
  6  7  1  0  0  0  0
  1  8  1  0  0  0  0
  2  8  4  0  0  0  0
  8  9  1  0  0  0  0
  2 10  4  0  0  0  0
  3 10  4  0  0  0  0
 10 11  1  0  0  0  0
  3 12  4  0  0  0  0
  4 12  4  0  0  0  0
 12 13  1  0  0  0  0
  4 14  4  0  0  0  0
  5 14  4  0  0  0  0
 14 15  4  0  0  0  0
  5 16  4  0  0  0  0
 16 17  4  0  0  0  0
  7 18  4  0  0  0  0
 18 19  4  0  0  0  0
  7 20  1  0  0  0  0
  9 20  4  0  0  0  0
 20 21  4  0  0  0  0
  9 22  4  0  0  0  0
 11 22  4  0  0  0  0
 22 23  4  0  0  0  0
 11 24  4  0  0  0  0
 13 24  4  0  0  0  0
 24 25  4  0  0  0  0
 13 26  4  0  0  0  0
 15 26  4  0  0  0  0
 26 27  4  0  0  0  0
 15 28  4  0  0  0  0
 17 28  4  0  0  0  0
 28 29  4  0  0  0  0
 19 30  4  0  0  0  0
 30 31  4  0  0  0  0
 19 32  1  0  0  0  0
 21 32  4  0  0  0  0
 32 33  4  0  0  0  0
 21 34  4  0  0  0  0
 23 34  4  0  0  0  0
 34 35  4  0  0  0  0
 23 36  4  0  0  0  0
 25 36  4  0  0  0  0
 36 37  4  0  0  0  0
 25 38  4  0  0  0  0
 27 38  4  0  0  0  0
 38 39  4  0  0  0  0
 27 40  1  0  0  0  0
 29 40  4  0  0  0  0
 40 41  4  0  0  0  0
 31 42  4  0  0  0  0
 42 43  4  0  0  0  0
 31 44  4  0  0  0  0
 33 44  4  0  0  0  0
 44 45  4  0  0  0  0
 33 46  4  0  0  0  0
 35 46  4  0  0  0  0
 46 47  1  0  0  0  0
 35 48  4  0  0  0  0
 37 48  4  0  0  0  0
 48 49  1  0  0  0  0
 37 50  4  0  0  0  0
 39 50  4  0  0  0  0
 50 51  1  0  0  0  0
 39 52  1  0  0  0  0
 41 52  4  0  0  0  0
 52 53  1  0  0  0  0
 43 54  4  0  0  0  0
 45 54  4  0  0  0  0
 45 55  4  0  0  0  0
 47 55  4  0  0  0  0
 47 56  4  0  0  0  0
 49 56  4  0  0  0  0
 49 57  4  0  0  0  0
 51 57  4  0  0  0  0
 51 58  1  0  0  0  0
 53 58  2  0  0  0  0
 17 59  1  0  0  0  0
 29 60  1  0  0  0  0
 41 61  1  0  0  0  0
 53 62  1  0  0  0  0
  6 63  1  0  0  0  0
 18 64  1  0  0  0  0
 30 65  1  0  0  0  0
 42 66  1  0  0  0  0
  1 67  1  0  0  0  0
  2 68  1  0  0  0  0
  3 69  1  0  0  0  0
  4 70  1  0  0  0  0
  5 71  1  0  0  0  0
 54 72  1  0  0  0  0
 55 73  1  0  0  0  0
 56 74  1  0  0  0  0
 57 75  1  0  0  0  0
 58 76  1  0  0  0  0
 16 77  1  0  0  0  0
 43 78  1  0  0  0  0
M  END
