 xtb: 6.7.1 (edcfbbe)
          11282416273D

 78 97  0     0  0            999 V2000
    1.2210    0.7252   10.0000 c   0  0  0  0  0  0  0  0  0  0  0  0
    0.0145    2.8681   10.0000 c   0  0  0  0  0  0  0  0  0  0  0  0
   -1.1925    5.0053   10.0000 c   0  0  0  0  0  0  0  0  0  0  0  0
   -2.3966    7.1431   10.0000 c   0  0  0  0  0  0  0  0  0  0  0  0
   -3.6005    9.2872   10.0000 c   0  0  0  0  0  0  0  0  0  0  0  0
    2.3833    0.0427   10.0000 c   0  0  0  0  0  0  0  0  0  0  0  0
    3.6499    0.7157   10.0000 c   0  0  0  0  0  0  0  0  0  0  0  0
    1.1914    2.1590   10.0000 c   0  0  0  0  0  0  0  0  0  0  0  0
    2.4436    2.8555   10.0000 c   0  0  0  0  0  0  0  0  0  0  0  0
   -0.0083    4.2850   10.0000 c   0  0  0  0  0  0  0  0  0  0  0  0
    1.2393    4.9864   10.0000 c   0  0  0  0  0  0  0  0  0  0  0  0
   -1.2086    6.4141   10.0000 c   0  0  0  0  0  0  0  0  0  0  0  0
    0.0369    7.1166   10.0000 c   0  0  0  0  0  0  0  0  0  0  0  0
   -2.4043    8.5453   10.0000 c   0  0  0  0  0  0  0  0  0  0  0  0
   -1.1657    9.2471   10.0000 c   0  0  0  0  0  0  0  0  0  0  0  0
   -3.5768   10.6674   10.0000 c   0  0  0  0  0  0  0  0  0  0  0  0
   -2.3779   11.3570   10.0000 c   0  0  0  0  0  0  0  0  0  0  0  0
    4.8428    0.0334   10.0000 c   0  0  0  0  0  0  0  0  0  0  0  0
    6.0909    0.7042   10.0000 c   0  0  0  0  0  0  0  0  0  0  0  0
    3.6488    2.1478   10.0000 c   0  0  0  0  0  0  0  0  0  0  0  0
    4.8868    2.8433   10.0000 c   0  0  0  0  0  0  0  0  0  0  0  0
    2.4484    4.2742   10.0000 c   0  0  0  0  0  0  0  0  0  0  0  0
    3.6851    4.9731   10.0000 c   0  0  0  0  0  0  0  0  0  0  0  0
    1.2472    6.4019   10.0000 c   0  0  0  0  0  0  0  0  0  0  0  0
    2.4832    7.1013   10.0000 c   0  0  0  0  0  0  0  0  0  0  0  0
    0.0479    8.5319   10.0000 c   0  0  0  0  0  0  0  0  0  0  0  0
    1.2819    9.2292   10.0000 c   0  0  0  0  0  0  0  0  0  0  0  0
   -1.1528   10.6692   10.0000 c   0  0  0  0  0  0  0  0  0  0  0  0
    0.0819   11.3426   10.0000 c   0  0  0  0  0  0  0  0  0  0  0  0
    7.2981    0.0197   10.0000 c   0  0  0  0  0  0  0  0  0  0  0  0
    8.5328    0.6931   10.0000 c   0  0  0  0  0  0  0  0  0  0  0  0
    6.0981    2.1330   10.0000 c   0  0  0  0  0  0  0  0  0  0  0  0
    7.3321    2.8303   10.0000 c   0  0  0  0  0  0  0  0  0  0  0  0
    4.8968    4.2610   10.0000 c   0  0  0  0  0  0  0  0  0  0  0  0
    6.1329    4.9603   10.0000 c   0  0  0  0  0  0  0  0  0  0  0  0
    3.6949    6.3891   10.0000 c   0  0  0  0  0  0  0  0  0  0  0  0
    4.9316    7.0880   10.0000 c   0  0  0  0  0  0  0  0  0  0  0  0
    2.4932    8.5189   10.0000 c   0  0  0  0  0  0  0  0  0  0  0  0
    3.7312    9.2145   10.0000 c   0  0  0  0  0  0  0  0  0  0  0  0
    1.2891   10.6581   10.0000 c   0  0  0  0  0  0  0  0  0  0  0  0
    2.5372   11.3289   10.0000 c   0  0  0  0  0  0  0  0  0  0  0  0
    9.7579    0.0053   10.0000 c   0  0  0  0  0  0  0  0  0  0  0  0
   10.9568    0.6949   10.0000 c   0  0  0  0  0  0  0  0  0  0  0  0
    8.5457    2.1151   10.0000 c   0  0  0  0  0  0  0  0  0  0  0  0
    9.7843    2.8170   10.0000 c   0  0  0  0  0  0  0  0  0  0  0  0
    7.3431    4.2456   10.0000 c   0  0  0  0  0  0  0  0  0  0  0  0
    8.5886    4.9482   10.0000 c   0  0  0  0  0  0  0  0  0  0  0  0
    6.1407    6.3759   10.0000 c   0  0  0  0  0  0  0  0  0  0  0  0
    7.3883    7.0773   10.0000 c   0  0  0  0  0  0  0  0  0  0  0  0
    4.9364    8.5068   10.0000 c   0  0  0  0  0  0  0  0  0  0  0  0
    6.1886    9.2033   10.0000 c   0  0  0  0  0  0  0  0  0  0  0  0
    3.7301   10.6466   10.0000 c   0  0  0  0  0  0  0  0  0  0  0  0
    4.9967   11.3195   10.0000 c   0  0  0  0  0  0  0  0  0  0  0  0
   10.9805    2.0750   10.0000 c   0  0  0  0  0  0  0  0  0  0  0  0
    9.7766    4.2192   10.0000 c   0  0  0  0  0  0  0  0  0  0  0  0
    8.5725    6.3569   10.0000 c   0  0  0  0  0  0  0  0  0  0  0  0
    7.3655    8.4942   10.0000 c   0  0  0  0  0  0  0  0  0  0  0  0
    6.1591   10.6370   10.0000 c   0  0  0  0  0  0  0  0  0  0  0  0
   -2.3706   12.4372   10.0000 h   0  0  0  0  0  0  0  0  0  0  0  0
    0.0854   12.4237   10.0000 h   0  0  0  0  0  0  0  0  0  0  0  0
    2.5387   12.4103   10.0000 h   0  0  0  0  0  0  0  0  0  0  0  0
    4.9898   12.4005   10.0000 h   0  0  0  0  0  0  0  0  0  0  0  0
    2.3902   -1.0383   10.0000 h   0  0  0  0  0  0  0  0  0  0  0  0
    4.8413   -1.0480   10.0000 h   0  0  0  0  0  0  0  0  0  0  0  0
    7.2946   -1.0615   10.0000 h   0  0  0  0  0  0  0  0  0  0  0  0
    9.7506   -1.0749   10.0000 h   0  0  0  0  0  0  0  0  0  0  0  0
    0.2736    0.2043   10.0000 h   0  0  0  0  0  0  0  0  0  0  0  0
   -0.9294    2.3400   10.0000 h   0  0  0  0  0  0  0  0  0  0  0  0
   -2.1358    4.4766   10.0000 h   0  0  0  0  0  0  0  0  0  0  0  0
   -3.3402    6.6152   10.0000 h   0  0  0  0  0  0  0  0  0  0  0  0
   -4.5423    8.7581   10.0000 h   0  0  0  0  0  0  0  0  0  0  0  0
   11.9223    2.6042   10.0000 h   0  0  0  0  0  0  0  0  0  0  0  0
   10.7202    4.7470   10.0000 h   0  0  0  0  0  0  0  0  0  0  0  0
    9.5158    6.8857   10.0000 h   0  0  0  0  0  0  0  0  0  0  0  0
    8.3094    9.0222   10.0000 h   0  0  0  0  0  0  0  0  0  0  0  0
    7.1064   11.1580   10.0000 h   0  0  0  0  0  0  0  0  0  0  0  0
   -4.5078   11.2166   10.0000 h   0  0  0  0  0  0  0  0  0  0  0  0
   11.8878    0.1457   10.0000 h   0  0  0  0  0  0  0  0  0  0  0  0
  1  6  2  0  0  0  0
  6  7  1  0  0  0  0
  1  8  1  0  0  0  0
  2  8  4  0  0  0  0
  8  9  1  0  0  0  0
  2 10  4  0  0  0  0
  3 10  4  0  0  0  0
 10 11  1  0  0  0  0
  3 12  4  0  0  0  0
  4 12  4  0  0  0  0
 12 13  1  0  0  0  0
  4 14  4  0  0  0  0
  5 14  4  0  0  0  0
 14 15  4  0  0  0  0
  5 16  4  0  0  0  0
 16 17  4  0  0  0  0
  7 18  4  0  0  0  0
 18 19  4  0  0  0  0
  7 20  1  0  0  0  0
  9 20  4  0  0  0  0
 20 21  4  0  0  0  0
  9 22  4  0  0  0  0
 11 22  4  0  0  0  0
 22 23  4  0  0  0  0
 11 24  4  0  0  0  0
 13 24  4  0  0  0  0
 24 25  4  0  0  0  0
 13 26  4  0  0  0  0
 15 26  4  0  0  0  0
 26 27  4  0  0  0  0
 15 28  4  0  0  0  0
 17 28  4  0  0  0  0
 28 29  4  0  0  0  0
 19 30  4  0  0  0  0
 30 31  4  0  0  0  0
 19 32  1  0  0  0  0
 21 32  4  0  0  0  0
 32 33  4  0  0  0  0
 21 34  4  0  0  0  0
 23 34  4  0  0  0  0
 34 35  4  0  0  0  0
 23 36  4  0  0  0  0
 25 36  4  0  0  0  0
 36 37  4  0  0  0  0
 25 38  4  0  0  0  0
 27 38  4  0  0  0  0
 38 39  4  0  0  0  0
 27 40  1  0  0  0  0
 29 40  4  0  0  0  0
 40 41  4  0  0  0  0
 31 42  4  0  0  0  0
 42 43  4  0  0  0  0
 31 44  4  0  0  0  0
 33 44  4  0  0  0  0
 44 45  4  0  0  0  0
 33 46  4  0  0  0  0
 35 46  4  0  0  0  0
 46 47  1  0  0  0  0
 35 48  4  0  0  0  0
 37 48  4  0  0  0  0
 48 49  1  0  0  0  0
 37 50  4  0  0  0  0
 39 50  4  0  0  0  0
 50 51  1  0  0  0  0
 39 52  1  0  0  0  0
 41 52  4  0  0  0  0
 52 53  1  0  0  0  0
 43 54  4  0  0  0  0
 45 54  4  0  0  0  0
 45 55  4  0  0  0  0
 47 55  4  0  0  0  0
 47 56  4  0  0  0  0
 49 56  4  0  0  0  0
 49 57  4  0  0  0  0
 51 57  4  0  0  0  0
 51 58  1  0  0  0  0
 53 58  2  0  0  0  0
 17 59  1  0  0  0  0
 29 60  1  0  0  0  0
 41 61  1  0  0  0  0
 53 62  1  0  0  0  0
  6 63  1  0  0  0  0
 18 64  1  0  0  0  0
 30 65  1  0  0  0  0
 42 66  1  0  0  0  0
  1 67  1  0  0  0  0
  2 68  1  0  0  0  0
  3 69  1  0  0  0  0
  4 70  1  0  0  0  0
  5 71  1  0  0  0  0
 54 72  1  0  0  0  0
 55 73  1  0  0  0  0
 56 74  1  0  0  0  0
 57 75  1  0  0  0  0
 58 76  1  0  0  0  0
 16 77  1  0  0  0  0
 43 78  1  0  0  0  0
M  END
