 xtb: 6.5.1 (fef0646)
          11212416373D

  4  3  0     0  0            999 V2000
   -1.3808    0.8928   -0.0062 n   0  0  0  0  0  0  0  0  0  0  0  0
   -2.1222    0.2321   -0.2038 h   0  0  0  0  0  0  0  0  0  0  0  0
   -1.2450    0.9109    0.9971 h   0  0  0  0  0  0  0  0  0  0  0  0
   -0.5310    0.5351   -0.4248 h   0  0  0  0  0  0  0  0  0  0  0  0
  1  2  1  0  0  0  0
  1  3  1  0  0  0  0
  1  4  1  0  0  0  0
M  END
